data_image0
_chemical_formula_structural       Mg8B16
_chemical_formula_sum              "Mg8 B16"
_cell_length_a       7.67353
_cell_length_b       5.31534
_cell_length_c       6.13763
_cell_angle_alpha    90
_cell_angle_beta     113.573
_cell_angle_gamma    90

_space_group_name_H-M_alt    "P 1"
_space_group_IT_number       1

loop_
  _space_group_symop_operation_xyz
  'x, y, z'

loop_
  _atom_site_type_symbol
  _atom_site_label
  _atom_site_symmetry_multiplicity
  _atom_site_fract_x
  _atom_site_fract_y
  _atom_site_fract_z
  _atom_site_occupancy
  Mg  Mg1       1.0  0.75000  0.00000  0.37500  1.0000
  Mg  Mg2       1.0  0.75000  0.50000  0.62500  1.0000
  Mg  Mg3       1.0  0.25000  0.50000  0.37500  1.0000
  Mg  Mg4       1.0  0.25000  0.00000  0.62500  1.0000
  Mg  Mg5       1.0  0.75000  0.00000  0.87500  1.0000
  Mg  Mg6       1.0  0.75000  0.50000  0.12500  1.0000
  Mg  Mg7       1.0  0.25000  0.50000  0.87500  1.0000
  Mg  Mg8       1.0  0.25000  0.00000  0.12500  1.0000
  B   B1        1.0  0.50000  0.33333  0.25000  1.0000
  B   B2        1.0  0.00000  0.33333  0.50000  1.0000
  B   B3        1.0  0.50000  0.33333  0.75000  1.0000
  B   B4        1.0  0.00000  0.33333  0.00000  1.0000
  B   B5        1.0  0.50000  0.66667  0.25000  1.0000
  B   B6        1.0  0.00000  0.66667  0.50000  1.0000
  B   B7        1.0  0.50000  0.66667  0.75000  1.0000
  B   B8        1.0  0.00000  0.66667  0.00000  1.0000
  B   B9        1.0  0.00000  0.83333  0.25000  1.0000
  B   B10       1.0  0.50000  0.83333  0.50000  1.0000
  B   B11       1.0  0.00000  0.83333  0.75000  1.0000
  B   B12       1.0  0.50000  0.83333  0.00000  1.0000
  B   B13       1.0  0.00000  0.16667  0.25000  1.0000
  B   B14       1.0  0.50000  0.16667  0.50000  1.0000
  B   B15       1.0  0.00000  0.16667  0.75000  1.0000
  B   B16       1.0  0.50000  0.16667  0.00000  1.0000
