# generated using pymatgen
data_Be4B
_symmetry_space_group_name_H-M   P4/nmm
_cell_length_a   3.35699684
_cell_length_b   3.35699684
_cell_length_c   7.00653647
_cell_angle_alpha   90.00000000
_cell_angle_beta   90.00000000
_cell_angle_gamma   90.00000000
_symmetry_Int_Tables_number   129
_chemical_formula_structural   Be4B
_chemical_formula_sum   'Be8 B2'
_cell_volume   78.95965676
_cell_formula_units_Z   2
loop_
 _symmetry_equiv_pos_site_id
 _symmetry_equiv_pos_as_xyz
  1  'x, y, z'
  2  '-y+1/2, x+1/2, z'
  3  '-x, -y, z'
  4  'y+1/2, -x+1/2, z'
  5  'x+1/2, -y+1/2, -z'
  6  '-y, -x, -z'
  7  '-x+1/2, y+1/2, -z'
  8  'y, x, -z'
  9  '-x+1/2, -y+1/2, -z'
  10  'y, -x, -z'
  11  'x+1/2, y+1/2, -z'
  12  '-y, x, -z'
  13  '-x, y, z'
  14  'y+1/2, x+1/2, z'
  15  'x, -y, z'
  16  '-y+1/2, -x+1/2, z'
loop_
 _atom_site_type_symbol
 _atom_site_label
 _atom_site_symmetry_multiplicity
 _atom_site_fract_x
 _atom_site_fract_y
 _atom_site_fract_z
 _atom_site_occupancy
  Be  Be0  4  0.00000000  0.00000000  0.30496143  1
  Be  Be1  2  0.00000000  0.00000000  0.00000000  1
  Be  Be2  2  0.00000000  0.50000000  0.51978384  1
  B  B3  2  0.00000000  0.50000000  0.83049113  1
