# generated using pymatgen
data_Mg3B
_symmetry_space_group_name_H-M   Pmm2
_cell_length_a   3.28417600
_cell_length_b   4.29050100
_cell_length_c   4.92292400
_cell_angle_alpha   90.00000000
_cell_angle_beta   90.00000000
_cell_angle_gamma   90.00000000
_symmetry_Int_Tables_number   25
_chemical_formula_structural   Mg3B
_chemical_formula_sum   'Mg3 B1'
_cell_volume   69.36774261
_cell_formula_units_Z   1
loop_
 _symmetry_equiv_pos_site_id
 _symmetry_equiv_pos_as_xyz
  1  'x, y, z'
  2  '-x, -y, z'
  3  '-x, y, z'
  4  'x, -y, z'
loop_
 _atom_site_type_symbol
 _atom_site_label
 _atom_site_symmetry_multiplicity
 _atom_site_fract_x
 _atom_site_fract_y
 _atom_site_fract_z
 _atom_site_occupancy
  Mg  Mg0  1  0.00000000  0.00000000  0.71147800  1.0
  Mg  Mg1  1  0.00000000  0.50000000  0.30628800  1.0
  Mg  Mg2  1  0.50000000  0.50000000  0.85132600  1.0
  B  B3  1  0.50000000  0.00000000  0.13090800  1.0
