# generated using pymatgen
data_B
_symmetry_space_group_name_H-M   C2/m
_cell_length_a   7.51321172
_cell_length_b   8.26387186
_cell_length_c   4.49833403
_cell_angle_alpha   90.00000000
_cell_angle_beta   119.76914664
_cell_angle_gamma   90.00000000
_symmetry_Int_Tables_number   12
_chemical_formula_structural   B
_chemical_formula_sum   B24
_cell_volume   242.43600081
_cell_formula_units_Z   24
loop_
 _symmetry_equiv_pos_site_id
 _symmetry_equiv_pos_as_xyz
  1  'x, y, z'
  2  '-x, -y, -z'
  3  '-x, y, -z'
  4  'x, -y, z'
  5  'x+1/2, y+1/2, z'
  6  '-x+1/2, -y+1/2, -z'
  7  '-x+1/2, y+1/2, -z'
  8  'x+1/2, -y+1/2, z'
loop_
 _atom_site_type_symbol
 _atom_site_label
 _atom_site_symmetry_multiplicity
 _atom_site_fract_x
 _atom_site_fract_y
 _atom_site_fract_z
 _atom_site_occupancy
  B  B0  8  0.12139350  0.12314150  0.53181700  1.0
  B  B1  8  0.20002800  0.31834800  0.56771100  1.0
  B  B2  4  0.08800000  0.00000000  0.82010700  1.0
  B  B3  4  0.20536100  0.00000000  0.25965300  1.0
