# generated using pymatgen
data_Mg15B
_symmetry_space_group_name_H-M   P-6m2
_cell_length_a   6.28941821
_cell_length_b   6.28941821
_cell_length_c   10.05220800
_cell_angle_alpha   90.00000000
_cell_angle_beta   90.00000000
_cell_angle_gamma   120.00000000
_symmetry_Int_Tables_number   187
_chemical_formula_structural   Mg15B
_chemical_formula_sum   'Mg15 B1'
_cell_volume   344.36027475
_cell_formula_units_Z   1
loop_
 _symmetry_equiv_pos_site_id
 _symmetry_equiv_pos_as_xyz
  1  'x, y, z'
  2  '-x+y, -x, -z'
  3  '-y, x-y, z'
  4  'x, y, -z'
  5  '-x+y, -x, z'
  6  '-y, x-y, -z'
  7  '-y, -x, -z'
  8  'x, x-y, z'
  9  '-x+y, y, -z'
  10  '-y, -x, z'
  11  'x, x-y, -z'
  12  '-x+y, y, z'
loop_
 _atom_site_type_symbol
 _atom_site_label
 _atom_site_symmetry_multiplicity
 _atom_site_fract_x
 _atom_site_fract_y
 _atom_site_fract_z
 _atom_site_occupancy
  Mg  Mg0  6  0.16182100  0.32364200  0.23770300  1.0
  Mg  Mg1  3  0.00274100  0.50137050  0.50000000  1.0
  Mg  Mg2  3  0.50270300  0.00540600  0.00000000  1.0
  Mg  Mg3  2  0.66666667  0.33333333  0.74897600  1.0
  Mg  Mg4  1  0.00000000  0.00000000  0.50000000  1.0
  B  B5  1  0.00000000  0.00000000  0.00000000  1.0
