# generated using pymatgen
data_MgB4
_symmetry_space_group_name_H-M   Pnma
_cell_length_a   5.46947776
_cell_length_b   4.37815396
_cell_length_c   7.41296893
_cell_angle_alpha   90.00000000
_cell_angle_beta   90.00000000
_cell_angle_gamma   90.00000000
_symmetry_Int_Tables_number   62
_chemical_formula_structural   MgB4
_chemical_formula_sum   'Mg4 B16'
_cell_volume   177.51255308
_cell_formula_units_Z   4
loop_
 _symmetry_equiv_pos_site_id
 _symmetry_equiv_pos_as_xyz
  1  'x, y, z'
  2  '-x, -y, -z'
  3  '-x+1/2, -y, z+1/2'
  4  'x+1/2, y, -z+1/2'
  5  'x+1/2, -y+1/2, -z+1/2'
  6  '-x+1/2, y+1/2, z+1/2'
  7  '-x, y+1/2, -z'
  8  'x, -y+1/2, z'
loop_
 _atom_site_type_symbol
 _atom_site_label
 _atom_site_symmetry_multiplicity
 _atom_site_fract_x
 _atom_site_fract_y
 _atom_site_fract_z
 _atom_site_occupancy
  Mg  Mg0  4  0.04620284  0.25000000  0.13907159  1.0
  B  B1  8  0.13309861  0.05799918  0.43715726  1.0
  B  B2  4  0.05309340  0.25000000  0.64740232  1.0
  B  B3  4  0.22162675  0.25000000  0.84729011  1.0
