# generated using pymatgen
data_Mg
_symmetry_space_group_name_H-M   Pmmn
_cell_length_a   3.24198982
_cell_length_b   15.10434039
_cell_length_c   5.12650792
_cell_angle_alpha   90.00000000
_cell_angle_beta   90.00000000
_cell_angle_gamma   90.00000000
_symmetry_Int_Tables_number   59
_chemical_formula_structural   Mg
_chemical_formula_sum   Mg10
_cell_volume   251.03544397
_cell_formula_units_Z   10
loop_
 _symmetry_equiv_pos_site_id
 _symmetry_equiv_pos_as_xyz
  1  'x, y, z'
  2  '-x, -y, z'
  3  'x+1/2, -y+1/2, -z'
  4  '-x+1/2, y+1/2, -z'
  5  '-x+1/2, -y+1/2, -z'
  6  'x+1/2, y+1/2, -z'
  7  '-x, y, z'
  8  'x, -y, z'
loop_
 _atom_site_type_symbol
 _atom_site_label
 _atom_site_symmetry_multiplicity
 _atom_site_fract_x
 _atom_site_fract_y
 _atom_site_fract_z
 _atom_site_occupancy
  Mg  Mg0  4  0.00000000  0.15137320  0.48812853  1
  Mg  Mg1  4  0.00000000  0.33231452  0.01374800  1
  Mg  Mg2  2  0.00000000  0.00000000  0.98432622  1
