# generated using pymatgen
data_B
_symmetry_space_group_name_H-M   Pnnm
_cell_length_a   5.03164439
_cell_length_b   5.59965214
_cell_length_c   6.93884639
_cell_angle_alpha   90.00000000
_cell_angle_beta   90.00000000
_cell_angle_gamma   90.00000000
_symmetry_Int_Tables_number   58
_chemical_formula_structural   B
_chemical_formula_sum   B28
_cell_volume   195.50517695
_cell_formula_units_Z   28
loop_
 _symmetry_equiv_pos_site_id
 _symmetry_equiv_pos_as_xyz
  1  'x, y, z'
  2  '-x, -y, -z'
  3  '-x, -y, z'
  4  'x, y, -z'
  5  'x+1/2, -y+1/2, -z+1/2'
  6  '-x+1/2, y+1/2, z+1/2'
  7  '-x+1/2, y+1/2, -z+1/2'
  8  'x+1/2, -y+1/2, z+1/2'
loop_
 _atom_site_type_symbol
 _atom_site_label
 _atom_site_symmetry_multiplicity
 _atom_site_fract_x
 _atom_site_fract_y
 _atom_site_fract_z
 _atom_site_occupancy
  B  B0  8  0.15312716  0.59290010  0.20812229  1
  B  B1  8  0.16067445  0.28075240  0.12532597  1
  B  B2  4  0.14799076  0.77096325  0.00000000  1
  B  B3  4  0.16419675  0.00771439  0.50000000  1
  B  B4  4  0.16993238  0.51952589  0.50000000  1
