# generated using pymatgen
data_B
_symmetry_space_group_name_H-M   P4_2/nnm
_cell_length_a   8.84945082
_cell_length_b   8.84945082
_cell_length_c   4.92026460
_cell_angle_alpha   90.00000000
_cell_angle_beta   90.00000000
_cell_angle_gamma   90.00000000
_symmetry_Int_Tables_number   134
_chemical_formula_structural   B
_chemical_formula_sum   B50
_cell_volume   385.31959825
_cell_formula_units_Z   50
loop_
 _symmetry_equiv_pos_site_id
 _symmetry_equiv_pos_as_xyz
  1  'x, y, z'
  2  '-y+1/2, x+1/2, z+1/2'
  3  '-x, -y, z'
  4  'y+1/2, -x+1/2, z+1/2'
  5  'x, -y, -z'
  6  '-y+1/2, -x+1/2, -z+1/2'
  7  '-x, y, -z'
  8  'y+1/2, x+1/2, -z+1/2'
  9  '-x+1/2, -y+1/2, -z+1/2'
  10  'y, -x, -z'
  11  'x+1/2, y+1/2, -z+1/2'
  12  '-y, x, -z'
  13  '-x+1/2, y+1/2, z+1/2'
  14  'y, x, z'
  15  'x+1/2, -y+1/2, z+1/2'
  16  '-y, -x, z'
loop_
 _atom_site_type_symbol
 _atom_site_label
 _atom_site_symmetry_multiplicity
 _atom_site_fract_x
 _atom_site_fract_y
 _atom_site_fract_z
 _atom_site_occupancy
  B  B0  16  0.08265032  0.22817988  0.41226180  1
  B  B1  16  0.08594831  0.32997093  0.09432241  1
  B  B2  8  0.12879101  0.12879101  0.10742561  1
  B  B3  8  0.24577399  0.24577399  0.92570598  1
  B  B4  2  0.00000000  0.00000000  0.00000000  1
