# generated using pymatgen
data_B
_symmetry_space_group_name_H-M   P2/c
_cell_length_a   11.82458800
_cell_length_b   5.19830200
_cell_length_c   13.32692040
_cell_angle_alpha   90.00000000
_cell_angle_beta   122.76380956
_cell_angle_gamma   90.00000000
_symmetry_Int_Tables_number   13
_chemical_formula_structural   B
_chemical_formula_sum   B40
_cell_volume   688.85231625
_cell_formula_units_Z   40
loop_
 _symmetry_equiv_pos_site_id
 _symmetry_equiv_pos_as_xyz
  1  'x, y, z'
  2  '-x, -y, -z'
  3  '-x, y, -z+1/2'
  4  'x, -y, z+1/2'
loop_
 _atom_site_type_symbol
 _atom_site_label
 _atom_site_symmetry_multiplicity
 _atom_site_fract_x
 _atom_site_fract_y
 _atom_site_fract_z
 _atom_site_occupancy
  B  B0  4  0.03656000  0.32856500  0.67318400  1
  B  B1  4  0.04967700  0.37291200  0.15138200  1
  B  B2  4  0.09711800  0.47253400  0.38843600  1
  B  B3  4  0.09861600  0.26906300  0.81958400  1
  B  B4  4  0.15108000  0.47930600  0.28407500  1
  B  B5  4  0.34676200  0.02115200  0.64123500  1
  B  B6  4  0.40207500  0.23000500  0.22739500  1
  B  B7  4  0.40690900  0.02928800  0.79910000  1
  B  B8  4  0.44535600  0.12971200  0.60307700  1
  B  B9  4  0.45952700  0.16980300  0.13696900  1
